testData/IEEE300/testCases/IEEE300Bus_modified_noHVDC_v2_zone1scalepercent_10.raw
0,   100.00, 30, 0, 1,  60.00     / PSS(R)E 30 RAW created by rawd30  WED, MAY 13 2020  15:00
 00/00/01                      100.0  0    0
 0
     1,'1           ', 115.0000,1,     0.000,     0.000,   1,   1,1.01816,  -1.6720,   1
     2,'2           ', 115.0000,1,     0.000,     0.000,   1,   1,1.03209,   0.5110,   1
     3,'3           ', 230.0000,1,     0.000,     0.000,   1,   1,0.98859,   1.1043,   1
     4,'4           ', 345.0000,1,     0.000,     0.000,   1,   1,1.01895,  -1.1851,   1
     5,'5           ', 115.0000,1,     0.000,     0.000,   1,   1,1.00619,  -3.2445,   1
     6,'6           ', 115.0000,1,     0.000,     0.000,   1,   1,1.02613,  -0.1220,   1
     7,'7           ', 230.0000,1,     0.000,     0.000,   1,   1,0.98518,   0.4166,   1
     8,'8           ', 115.0000,1,     0.000,     0.000,   1,   1,1.01529,  -6.7610,   1
     9,'9           ', 115.0000,1,     0.000,     0.000,   1,   1,0.99109,  -6.2521,   1
    10,'10          ', 230.0000,1,     0.000,     0.000,   1,   1,1.02049,  -7.8280,   1
    11,'11          ', 115.0000,1,     0.000,     0.000,   1,   1,1.00084,  -7.2475,   1
    12,'12          ', 230.0000,1,     0.000,     0.000,   1,   1,0.98881,  -2.1063,   1
    13,'13          ', 115.0000,1,     0.000,     0.000,   1,   1,0.99270, -11.3632,   1
    14,'14          ', 115.0000,1,     0.000,     0.000,   1,   1,0.97773, -15.8051,   1
    15,'15          ', 115.0000,1,     0.000,     0.000,   1,   1,1.01392, -20.2242,   1
    16,'16          ', 345.0000,1,     0.000,     0.000,   1,   1,1.00986,  -9.9601,   1
    17,'17          ', 115.0000,1,     0.000,     0.000,   1,   1,1.03502, -28.6200,   1
    19,'19          ', 230.0000,1,     0.000,     0.000,   1,   1,0.96724,  -8.4302,   1
    20,'20          ', 115.0000,1,     0.000,     0.000,   1,   1,1.00098, -13.9527,   1
    21,'21          ', 230.0000,1,     0.000,     0.000,   1,   1,0.96520,  -8.1213,   1
    22,'22          ', 115.0000,1,     0.000,     0.000,   1,   1,0.98960, -13.8008,   1
    23,'23          ', 115.0000,1,     0.000,     0.000,   1,   1,1.04615,  -7.4428,   1
    24,'24          ', 230.0000,1,     0.000,     0.000,   1,   1,1.00036,  -4.3320,   1
    25,'25          ', 115.0000,1,     0.000,     0.000,   1,   1,1.00970, -10.6142,   1
    26,'26          ', 115.0000,1,     0.000,     0.000,   1,   1,0.97742, -14.5722,   1
    27,'27          ', 115.0000,1,     0.000,     0.000,   1,   1,0.94996, -18.2946,   1
    33,'33          ', 115.0000,1,     0.000,     0.000,   1,   1,0.99625, -20.3542,   1
    34,'34          ', 345.0000,1,     0.000,     0.000,   1,   1,1.01869, -14.6200,   1
    35,'35          ', 115.0000,1,     0.000,     0.000,   1,   1,0.96995, -32.7590,   1
    36,'36          ', 230.0000,1,     0.000,     0.000,   1,   1,0.98187, -27.3488,   1
    37,'37          ', 115.0000,1,     0.000,     0.000,   1,   1,0.99499, -19.3053,   1
    38,'38          ', 115.0000,1,     0.000,     0.000,   1,   1,0.99082, -21.0441,   1
    39,'39          ', 345.0000,1,     0.000,     0.000,   1,   1,1.03564, -12.0893,   1
    40,'40          ', 115.0000,1,     0.000,     0.000,   1,   1,0.99352, -21.7398,   1
    41,'41          ', 115.0000,1,     0.000,     0.000,   1,   1,1.00206, -17.9114,   1
    42,'42          ', 345.0000,1,     0.000,     0.000,   1,   1,1.02366, -13.9357,   1
    43,'43          ', 115.0000,1,     0.000,     0.000,   1,   1,0.96678, -26.5848,   1
    44,'44          ', 115.0000,1,     0.000,     0.000,   1,   1,0.98127, -26.1881,   1
    45,'45          ', 230.0000,1,     0.000,     0.000,   1,   1,0.99566, -21.7772,   1
    46,'46          ', 345.0000,1,     0.000,     0.000,   1,   1,1.01236, -17.4323,   1
    47,'47          ', 115.0000,1,     0.000,     0.000,   1,   1,0.94130, -33.2106,   1
    48,'48          ', 115.0000,1,     0.000,     0.000,   1,   1,0.97600, -28.8069,   1
    49,'49          ', 115.0000,1,     0.000,     0.000,   1,   1,1.03998,  -4.4578,   1
    51,'51          ', 115.0000,1,     0.000,     0.000,   1,   1,0.99565, -13.7769,   1
    52,'52          ', 115.0000,1,     0.000,     0.000,   1,   1,0.95782, -20.6621,   1
    53,'53          ', 115.0000,1,     0.000,     0.000,   1,   1,0.96022, -27.8189,   1
    54,'54          ', 115.0000,1,     0.000,     0.000,   1,   1,0.97394, -25.9921,   1
    55,'55          ', 115.0000,1,     0.000,     0.000,   1,   1,0.98718, -22.3252,   1
    57,'57          ', 115.0000,1,     0.000,     0.000,   1,   1,1.01723, -20.9175,   1
    58,'58          ', 115.0000,1,     0.000,     0.000,   1,   1,0.96685, -18.6372,   1
    59,'59          ', 115.0000,1,     0.000,     0.000,   1,   1,0.95177, -17.7828,   1
    60,'60          ', 230.0000,1,     0.000,     0.000,   1,   1,1.00297, -16.7986,   1
    61,'61          ', 115.0000,1,     0.000,     0.000,   1,   1,0.96990, -15.2701,   1
    62,'62          ', 230.0000,1,     0.000,     0.000,   1,   1,1.00005,  -8.7280,   1
    63,'63          ', 115.0000,1,     0.000,     0.000,   1,   1,0.95829, -32.9666,   1
    64,'64          ', 230.0000,1,     0.000,     0.000,   1,   1,0.93106, -26.3638,   1
    69,'69          ', 115.0000,1,     0.000,     0.000,   1,   1,0.94096, -29.0388,   1
    70,'70          ', 115.0000,1,     0.000,     0.000,   1,   1,0.90522, -47.8091,   1
    71,'71          ', 115.0000,1,     0.000,     0.000,   1,   1,0.95111, -40.1828,   1
    72,'72          ', 115.0000,1,     0.000,     0.000,   1,   1,0.95328, -35.5268,   1
    73,'73          ', 115.0000,1,     0.000,     0.000,   1,   1,0.95264, -33.3986,   1
    74,'74          ', 230.0000,1,     0.000,     0.000,   1,   1,0.96821, -27.9848,   1
    76,'76          ', 115.0000,1,     0.000,     0.000,   1,   1,0.96318, -34.3069,   1
    77,'77          ', 115.0000,1,     0.000,     0.000,   1,   1,0.97417, -31.6988,   1
    78,'78          ', 115.0000,1,     0.000,     0.000,   1,   1,0.98019, -30.6818,   1
    79,'79          ', 115.0000,1,     0.000,     0.000,   1,   1,0.96543, -31.4440,   1
    80,'80          ', 115.0000,1,     0.000,     0.000,   1,   1,0.97224, -28.8597,   1
    81,'81          ', 345.0000,1,     0.000,     0.000,   1,   1,1.01464, -19.5415,   1
    84,'84          ', 115.0000,1,     0.000,     0.000,   1,   1,1.02498, -23.2451,   1
    85,'85          ', 230.0000,1,     0.000,     0.000,   1,   1,0.97702, -34.6315,   1
    86,'86          ', 230.0000,1,     0.000,     0.000,   1,   1,0.97350, -30.1501,   1
    87,'87          ', 230.0000,1,     0.000,     0.000,   1,   1,0.96850, -21.0826,   1
    88,'88          ', 230.0000,1,     0.000,     0.000,   1,   1,0.99405, -24.3761,   1
    89,'89          ', 115.0000,1,     0.000,     0.000,   1,   1,1.01578, -24.1120,   1
    90,'90          ', 115.0000,1,     0.000,     0.000,   1,   1,1.00417, -22.8703,   1
    91,'91          ', 115.0000,1,     0.000,     0.000,   1,   1,1.05199, -24.1294,   1
    92,'92          ', 115.0000,1,     0.000,     0.000,   1,   1,1.05199, -19.8406,   1
    94,'94          ', 115.0000,1,     0.000,     0.000,   1,   1,0.97494, -23.5494,   1
    97,'97          ', 115.0000,1,     0.000,     0.000,   1,   1,1.01074, -29.1652,   1
    98,'98          ', 115.0000,1,     0.000,     0.000,   1,   1,1.00000, -31.7800,   1
    99,'99          ', 115.0000,1,     0.000,     0.000,   1,   1,0.98741, -37.8578,   1
   100,'100         ', 115.0000,1,     0.000,     0.000,   1,   1,0.99953, -31.0076,   1
   102,'102         ', 115.0000,1,     0.000,     0.000,   1,   1,0.99160, -31.8760,   1
   103,'103         ', 115.0000,1,     0.000,     0.000,   1,   1,1.02070, -27.0837,   1
   104,'104         ', 115.0000,1,     0.000,     0.000,   1,   1,0.98854, -34.4795,   1
   105,'105         ', 115.0000,1,     0.000,     0.000,   1,   1,1.01147, -27.7464,   1
   107,'107         ', 115.0000,1,     0.000,     0.000,   1,   1,0.99161, -30.5444,   1
   108,'108         ', 115.0000,1,     0.000,     0.000,   1,   1,0.98999, -38.0005,   1
   109,'109         ', 115.0000,1,     0.000,     0.000,   1,   1,0.94685, -41.7558,   1
   110,'110         ', 115.0000,1,     0.000,     0.000,   1,   1,0.95000, -41.5049,   1
   112,'112         ', 115.0000,1,     0.000,     0.000,   1,   1,0.94033, -41.8482,   1
   113,'113         ', 115.0000,1,     0.000,     0.000,   1,   1,0.93056, -37.7283,   1
   114,'114         ', 115.0000,1,     0.000,     0.000,   1,   1,0.94301, -41.1401,   1
   115,'115         ', 115.0000,1,     0.000,     0.000,   2,   2,0.93021,  17.3794,   1
   116,'116         ', 115.0000,1,     0.000,     0.000,   2,   2,1.03500,  24.3309,   1
   117,'117         ', 115.0000,1,     0.000,   325.000,   2,   2,0.91685,  30.7978,   1
   118,'118         ', 115.0000,1,     0.000,     0.000,   2,   2,0.91130,  31.9875,   1
   119,'119         ', 115.0000,1,     0.000,     0.000,   2,   2,1.04337,  47.5312,   1
   120,'120         ', 115.0000,1,     0.000,    55.000,   2,   2,1.01615,  42.8480,   1
   121,'121         ', 115.0000,1,     0.000,     0.000,   2,   2,0.85468,  21.0144,   1
   122,'122         ', 115.0000,1,     0.000,     0.000,   2,   2,0.91089,  14.8291,   1
   123,'123         ', 115.0000,1,     0.000,     0.000,   2,   2,0.97284,   9.7876,   1
   124,'124         ', 115.0000,1,     0.000,     0.000,   2,   2,1.02328,  21.0985,   1
   125,'125         ', 115.0000,1,     0.000,     0.000,   2,   2,1.01026,  -1.1795,   1
   126,'126         ', 115.0000,1,     0.000,     0.000,   2,   2,0.97793,   2.9157,   1
   127,'127         ', 230.0000,1,     0.000,     0.000,   2,   2,0.99368,  -2.4549,   1
   128,'128         ', 230.0000,1,     0.000,     0.000,   2,   2,1.00325,  -1.5063,   1
   129,'129         ', 230.0000,1,     0.000,     0.000,   2,   2,1.00252,  -0.7845,   1
   130,'130         ', 230.0000,1,     0.000,     0.000,   2,   2,1.01593,   4.6118,   1
   131,'131         ', 230.0000,1,     0.000,     0.000,   2,   2,0.98121,   1.6135,   1
   132,'132         ', 230.0000,1,     0.000,     0.000,   2,   2,1.00359,   3.4344,   1
   133,'133         ', 230.0000,1,     0.000,     0.000,   2,   2,1.00186,  -2.7260,   1
   134,'134         ', 230.0000,1,     0.000,     0.000,   2,   2,1.01945,  -0.5572,   1
   135,'135         ', 230.0000,1,     0.000,     0.000,   2,   2,1.01831,  -0.0810,   1
   136,'136         ', 230.0000,1,     0.000,     0.000,   2,   2,1.04557,   6.5330,   1
   137,'137         ', 230.0000,1,     0.000,     0.000,   2,   2,1.04468,  -0.4755,   1
   138,'138         ', 230.0000,1,     0.000,     0.000,   2,   2,1.05497,  -9.7267,   1
   139,'139         ', 115.0000,1,     0.000,     0.000,   2,   2,1.01069,  -1.2918,   1
   140,'140         ', 230.0000,1,     0.000,     0.000,   2,   2,1.04158,  -1.9736,   1
   141,'141         ', 230.0000,1,     0.000,     0.000,   2,   2,1.05099,   2.4262,   1
   142,'142         ', 230.0000,1,     0.000,     0.000,   2,   2,1.01513,  -2.0353,   1
   143,'143         ', 230.0000,1,     0.000,     0.000,   2,   2,1.04348,   4.0313,   1
   144,'144         ', 230.0000,1,     0.000,     0.000,   2,   2,1.00122,  -7.7292,   1
   145,'145         ', 230.0000,1,     0.000,     0.000,   2,   2,1.00782,   0.9628,   1
   146,'146         ', 230.0000,1,     0.000,     0.000,   2,   2,1.05280,   6.2372,   1
   147,'147         ', 230.0000,1,     0.000,     0.000,   2,   2,1.05280,  10.7033,   1
   148,'148         ', 230.0000,1,     0.000,     0.000,   2,   2,1.05724,   0.5309,   1
   149,'149         ', 230.0000,1,     0.000,     0.000,   2,   2,1.07350,   5.9348,   1
   150,'150         ', 230.0000,1,     0.000,     0.000,   2,   2,0.98235,   2.3040,   1
   151,'151         ', 230.0000,1,     0.000,     0.000,   2,   2,1.00310,   3.4581,   1
   152,'152         ', 230.0000,1,     0.000,     0.000,   2,   2,1.05350,  14.9622,   1
   153,'153         ', 230.0000,1,     0.000,     0.000,   2,   2,1.04350,  16.1795,   1
   154,'154         ', 115.0000,1,     0.000,    34.500,   2,   2,0.96729,   3.5005,   1
   155,'155         ', 230.0000,1,     0.000,     0.000,   2,   2,1.01215,  11.6130,   1
   156,'156         ', 115.0000,1,     0.000,     0.000,   2,   2,0.96300,  10.0183,   1
   157,'157         ', 230.0000,1,     0.000,     0.000,   2,   2,0.92485,  16.3282,   1
   158,'158         ', 230.0000,1,     0.000,     0.000,   2,   2,0.94735,  15.6262,   1
   159,'159         ', 230.0000,1,     0.000,     0.000,   2,   2,0.91418,  20.7389,   1
   160,'160         ', 230.0000,1,     0.000,     0.000,   2,   2,0.97920,  18.5855,   1
   161,'161         ', 230.0000,1,     0.000,     0.000,   2,   2,1.03395,  14.2835,   1
   162,'162         ', 230.0000,1,     0.000,     0.000,   2,   2,0.97951,  24.3973,   1
   163,'163         ', 230.0000,1,     0.000,     0.000,   2,   2,1.02991,   5.3416,   1
   164,'164         ', 230.0000,1,     0.000,  -212.000,   2,   2,0.97323,  14.3225,   1
   165,'165         ', 230.0000,1,     0.000,     0.000,   2,   2,0.99176,  33.1224,   1
   166,'166         ', 230.0000,1,     0.000,  -103.000,   2,   2,0.99202,  37.4654,   1
   167,'167         ', 230.0000,1,     0.000,     0.000,   2,   2,0.97138,  -4.0442,   1
   168,'168         ', 230.0000,1,     0.000,     0.000,   2,   2,1.00325,  -1.5200,   1
   169,'169         ', 230.0000,1,     0.000,     0.000,   2,   2,0.98585,  -2.9397,   1
   170,'170         ', 115.0000,1,     0.000,     0.000,   2,   2,0.92899,   0.1862,   1
   171,'171         ', 115.0000,1,     0.000,     0.000,   2,   2,0.98288,  -7.2017,   1
   172,'172         ', 115.0000,1,     0.000,     0.000,   2,   2,1.02336,  -3.9875,   1
   173,'173         ', 115.0000,1,     0.000,    53.000,   2,   2,0.98210, -10.7714,   1
   174,'174         ', 115.0000,1,     0.000,     0.000,   2,   2,1.06182,  -0.3845,   1
   175,'175         ', 115.0000,1,     0.000,     0.000,   2,   2,0.97313,  -6.1406,   1
   176,'176         ', 115.0000,1,     0.000,     0.000,   2,   2,1.05220,   7.4413,   1
   177,'177         ', 115.0000,1,     0.000,     0.000,   2,   2,1.00770,   2.8697,   1
   178,'178         ', 115.0000,1,     0.000,     0.000,   2,   2,0.93944,  -5.2993,   1
   179,'179         ', 115.0000,1,     0.000,    45.000,   2,   2,0.97024,  -8.4001,   1
   180,'180         ', 115.0000,1,     0.000,     0.000,   2,   2,0.97897,  -1.9200,   1
   181,'181         ', 230.0000,1,     0.000,     0.000,   2,   2,1.04848,  -0.8680,   1
   182,'182         ', 230.0000,1,     0.000,     0.000,   2,   2,1.04376,  -2.4125,   1
   183,'183         ', 115.0000,1,     0.000,     0.000,   2,   2,0.97179,  12.7709,   1
   184,'184         ', 230.0000,1,     0.000,     0.000,   2,   2,1.03736,   1.0319,   1
   185,'185         ', 230.0000,1,     0.000,     0.000,   2,   2,1.05220,   3.7904,   1
   186,'186         ', 230.0000,1,     0.000,     0.000,   2,   2,1.06497,   3.2166,   1
   187,'187         ', 230.0000,1,     0.000,     0.000,   2,   2,1.06497,   2.1594,   1
   188,'188         ', 230.0000,1,     0.000,     0.000,   2,   2,1.05049,  -0.1462,   1
   189,'189         ',  66.0000,1,     0.000,     0.000,   3,   3,0.99259, -26.2135,   1
   190,'190         ', 345.0000,1,     0.000,  -150.000,   3,   3,1.05510, -12.7112,   1
   191,'191         ', 230.0000,1,     0.000,     0.000,   3,   3,1.04341,  35.2039,   1
   192,'192         ', 230.0000,1,     0.000,     0.000,   3,   3,0.90448,   7.8529,   1
   193,'192         ',  66.0000,1,     0.000,     0.000,   3,   3,0.98047, -27.5978,   1
   194,'194         ', 345.0000,1,     0.000,     0.000,   3,   3,1.03654, -15.5031,   1
   195,'195         ', 345.0000,1,     0.000,     0.000,   3,   3,1.02378, -17.5869,   1
   196,'196         ', 115.0000,1,     0.000,     0.000,   3,   3,0.95844, -24.8006,   1
   197,'197         ', 115.0000,1,     0.000,     0.000,   3,   3,0.98304, -22.8047,   1
   198,'198         ', 115.0000,1,     0.000,     0.000,   3,   3,1.01499, -19.2740,   1
   199,'199         ', 115.0000,1,     0.000,     0.000,   3,   3,0.94888, -24.5376,   1
   200,'200         ', 115.0000,1,     0.000,     0.000,   3,   3,0.95464, -23.8666,   1
   201,'201         ',  66.0000,1,     0.000,     0.000,   1,   1,0.93839, -31.0886,   1
   202,'202         ',  66.0000,1,     0.000,     0.000,   3,   3,0.98195, -24.2444,   1
   203,'203         ', 115.0000,1,     0.000,     0.000,   3,   3,0.99896, -21.1437,   1
   204,'204         ',  66.0000,1,     0.000,     0.000,   3,   3,0.95511, -27.6353,   1
   205,'205         ',  66.0000,1,     0.000,     0.000,   3,   3,0.96897, -28.1238,   1
   206,'206         ',  66.0000,1,     0.000,     0.000,   3,   3,0.96432, -34.2238,   1
   207,'207         ',  66.0000,1,     0.000,     0.000,   1,   1,0.96749, -36.5160,   1
   208,'208         ',  66.0000,1,     0.000,     0.000,   3,   3,0.98406, -27.7733,   1
   209,'209         ',  66.0000,1,     0.000,     0.000,   3,   3,0.99839, -25.5900,   1
   210,'210         ', 115.0000,1,     0.000,     0.000,   3,   3,0.97327, -23.0986,   1
   211,'211         ', 115.0000,1,     0.000,     0.000,   3,   3,0.99196, -22.2526,   1
   212,'212         ', 138.0000,1,     0.000,     0.000,   3,   3,1.00425, -20.4628,   1
   213,'213         ',  16.5000,1,     0.000,     0.000,   3,   3,1.01000,  -5.1280,   1
   214,'214         ', 138.0000,1,     0.000,     0.000,   3,   3,0.99086, -11.5574,   1
   215,'215         ', 138.0000,1,     0.000,     0.000,   3,   3,0.98417, -14.6137,   1
   216,'216         ', 138.0000,1,     0.000,     0.000,   3,   3,0.97355, -16.2197,   1
   217,'217         ', 138.0000,1,     0.000,     0.000,   3,   3,1.01902, -14.5581,   1
   218,'218         ', 138.0000,1,     0.000,     0.000,   3,   3,1.00486, -14.6978,   1
...
 0 /End of Bus data, Begin Load data
     1,'1 ',1,   1,   1,   120.904,    65.825,     0.000,     0.000,     0.000,     0.000,   1
     2,'1 ',1,   1,   1,    75.229,    20.151,     0.000,     0.000,     0.000,     0.000,   1
     3,'1 ',1,   1,   1,    26.867,     0.000,     0.000,     0.000,     0.000,     0.000,   1
     5,'1 ',1,   1,   1,   474.211,   174.639,     0.000,     0.000,     0.000,     0.000,   1
     6,'1 ',1,   1,   1,   161.205,    55.078,     0.000,     0.000,     0.000,     0.000,   1
     8,'1 ',1,   1,   1,    77.916,    18.807,     0.000,     0.000,     0.000,     0.000,   1
     9,'1 ',1,   1,   1,   128.964,    57.765,     0.000,     0.000,     0.000,     0.000,   1
    10,'1 ',1,   1,   1,   198.819,    44.331,     0.000,     0.000,     0.000,     0.000,   1
    11,'1 ',1,   1,   1,   111.500,    28.211,     0.000,     0.000,     0.000,     0.000,   1
    13,'1 ',1,   1,   1,    77.916,    13.434,     0.000,     0.000,     0.000,     0.000,   1
    14,'1 ',1,   1,   1,   214.940,    80.602,     0.000,     0.000,     0.000,     0.000,   1
    15,'1 ',1,   1,   1,   170.205,    30.898,     0.000,     0.000,     0.000,     0.000,   1
    17,'1 ',1,   1,   1,   753.633,   295.542,     0.000,     0.000,     0.000,     0.000,   1
    20,'1 ',1,   1,   1,   799.307,   161.205,     0.000,     0.000,     0.000,     0.000,   1
    21,'1 ',1,   1,   1,   103.440,     1.343,     0.000,     0.000,     0.000,     0.000,   1
    22,'1 ',1,   1,   1,   108.813,    30.898,     0.000,     0.000,     0.000,     0.000,   1
    23,'1 ',1,   1,   1,    28.211,     9.404,     0.000,     0.000,     0.000,     0.000,   1
    25,'1 ',1,   1,   1,    60.452,    16.120,     0.000,     0.000,     0.000,     0.000,   1
    26,'1 ',1,   1,   1,    37.614,    12.090,     0.000,     0.000,     0.000,     0.000,   1
    27,'1 ',1,   1,   1,    92.693,    17.464,     0.000,     0.000,     0.000,     0.000,   1
    33,'1 ',1,   1,   1,    73.886,     8.060,     0.000,     0.000,     0.000,     0.000,   1
    37,'1 ',1,   1,   1,   114.187,    42.988,     0.000,     0.000,     0.000,     0.000,   1
    38,'1 ',1,   1,   1,   208.223,    24.181,     0.000,     0.000,     0.000,     0.000,   1
    40,'1 ',1,   1,   1,    61.795,   -28.211,     0.000,     0.000,     0.000,     0.000,   1
    41,'1 ',1,   1,   1,   115.530,     0.000,     0.000,     0.000,     0.000,     0.000,   1
    43,'1 ',1,   1,   1,    52.392,    12.090,     0.000,     0.000,     0.000,     0.000,   1
    44,'1 ',1,   1,   1,   261.958,    38.958,     0.000,     0.000,     0.000,     0.000,   1
    47,'1 ',1,   1,   1,    77.916,    15.852,     0.000,     0.000,     0.000,     0.000,   1
    48,'1 ',1,   1,   1,    55.078,    25.524,     0.000,     0.000,     0.000,     0.000,   1
    49,'1 ',1,   1,   1,   123.590,    34.928,     0.000,     0.000,     0.000,     0.000,   1
    51,'1 ',1,   1,   1,    -6.717,     6.717,     0.000,     0.000,     0.000,     0.000,   1
    52,'1 ',1,   1,   1,    81.946,    37.614,     0.000,     0.000,     0.000,     0.000,   1
    53,'1 ',1,   1,   1,    92.693,     4.030,     0.000,     0.000,     0.000,     0.000,   1
    54,'1 ',1,   1,   1,    13.434,     1.343,     0.000,     0.000,     0.000,     0.000,   1
    55,'1 ',1,   1,   1,    29.554,    13.434,     0.000,     0.000,     0.000,     0.000,   1
    57,'1 ',1,   1,   1,   131.651,    26.867,     0.000,     0.000,     0.000,     0.000,   1
    58,'1 ',1,   1,   1,    18.807,     1.343,     0.000,     0.000,     0.000,     0.000,   1
    59,'1 ',1,   1,   1,   292.856,   142.398,     0.000,     0.000,     0.000,     0.000,   1
    61,'1 ',1,   1,   1,   304.946,   147.771,     0.000,     0.000,     0.000,     0.000,   1
    63,'1 ',1,   1,   1,    94.036,    40.301,     0.000,     0.000,     0.000,     0.000,   1
    70,'1 ',1,   1,   1,    75.229,    26.867,     0.000,     0.000,     0.000,     0.000,   1
    71,'1 ',1,   1,   1,   155.831,    51.048,     0.000,     0.000,     0.000,     0.000,   1
    72,'1 ',1,   1,   1,    76.572,    25.524,     0.000,     0.000,     0.000,     0.000,   1
    73,'1 ',1,   1,   1,   300.916,    95.380,     0.000,     0.000,     0.000,     0.000,   1
    76,'1 ',1,   1,   1,   279.422,   143.741,     0.000,     0.000,     0.000,     0.000,   1
    77,'1 ',1,   1,   1,    99.410,    37.614,     0.000,     0.000,     0.000,     0.000,   1
    79,'1 ',1,   1,   1,    64.482,    18.807,     0.000,     0.000,     0.000,     0.000,   1
    80,'1 ',1,   1,   1,    37.614,     9.404,     0.000,     0.000,     0.000,     0.000,   1
    84,'1 ',1,   1,   1,    49.705,    17.464,     0.000,     0.000,     0.000,     0.000,   1
    89,'1 ',1,   1,   1,    59.377,     0.000,     0.000,     0.000,     0.000,     0.000,   1
    90,'1 ',1,   1,   1,    88.663,     0.000,     0.000,     0.000,     0.000,     0.000,   1
    91,'1 ',1,   1,   1,    23.375,     0.000,     0.000,     0.000,     0.000,     0.000,   1
    92,'1 ',1,   1,   1,    21.225,     0.000,     0.000,     0.000,     0.000,     0.000,   1
    94,'1 ',1,   1,   1,    81.005,     0.000,     0.000,     0.000,     0.000,     0.000,   1
    97,'1 ',1,   1,   1,    53.601,     0.000,     0.000,     0.000,     0.000,     0.000,   1
    98,'1 ',1,   1,   1,    89.603,     0.000,     0.000,     0.000,     0.000,     0.000,   1
    99,'1 ',1,   1,   1,   112.172,     0.000,     0.000,     0.000,     0.000,     0.000,   1
   102,'1 ',1,   1,   1,   104.514,     0.000,     0.000,     0.000,     0.000,     0.000,   1
   103,'1 ',1,   1,   1,    42.988,     0.000,     0.000,     0.000,     0.000,     0.000,   1
   104,'1 ',1,   1,   1,    11.553,     0.000,     0.000,     0.000,     0.000,     0.000,   1
   105,'1 ',1,   1,   1,    66.631,     0.000,     0.000,     0.000,     0.000,     0.000,   1
   107,'1 ',1,   1,   1,     6.180,     0.000,     0.000,     0.000,     0.000,     0.000,   1
   108,'1 ',1,   1,   1,   150.592,     0.000,     0.000,     0.000,     0.000,     0.000,   1
   109,'1 ',1,   1,   1,    41.242,     0.000,     0.000,     0.000,     0.000,     0.000,   1
   110,'1 ',1,   1,   1,    84.633,     0.000,     0.000,     0.000,     0.000,     0.000,   1
   112,'1 ',1,   1,   1,    26.330,     0.000,     0.000,     0.000,     0.000,     0.000,   1
   113,'1 ',1,   1,   1,    35.196,     0.000,     0.000,     0.000,     0.000,     0.000,   1
   114,'1 ',1,   1,   1,    24.449,     0.000,     0.000,     0.000,     0.000,     0.000,   1
   118,'1 ',1,   2,   2,    14.100,   650.000,     0.000,     0.000,     0.000,     0.000,   1
   119,'1 ',1,   2,   2,   100.300,    34.400,     0.000,     0.000,     0.000,     0.000,   1
   121,'1 ',1,   2,   2,   535.000,    55.000,     0.000,     0.000,     0.000,     0.000,   1
   122,'1 ',1,   2,   2,   229.100,    11.800,     0.000,     0.000,     0.000,     0.000,   1
   123,'1 ',1,   2,   2,    78.000,     1.400,     0.000,     0.000,     0.000,     0.000,   1
   124,'1 ',1,   2,   2,   276.400,    59.300,     0.000,     0.000,     0.000,     0.000,   1
   125,'1 ',1,   2,   2,   514.800,    82.700,     0.000,     0.000,     0.000,     0.000,   1
   126,'1 ',1,   2,   2,    57.900,     5.100,     0.000,     0.000,     0.000,     0.000,   1
   127,'1 ',1,   2,   2,   380.800,    37.000,     0.000,     0.000,     0.000,     0.000,   1
   135,'1 ',1,   2,   2,   169.200,    41.600,     0.000,     0.000,     0.000,     0.000,   1
   136,'1 ',1,   2,   2,    55.200,    18.200,     0.000,     0.000,     0.000,     0.000,   1
   137,'1 ',1,   2,   2,   273.600,    99.800,     0.000,     0.000,     0.000,     0.000,   1
   138,'1 ',1,   2,   2,   826.700,   135.200,     0.000,     0.000,     0.000,     0.000,   1
   139,'1 ',1,   2,   2,   595.000,    83.300,     0.000,     0.000,     0.000,     0.000,   1
   140,'1 ',1,   2,   2,   387.700,   114.700,     0.000,     0.000,     0.000,     0.000,   1
   141,'1 ',1,   2,   2,   145.000,    58.000,     0.000,     0.000,     0.000,     0.000,   1
   142,'1 ',1,   2,   2,    56.500,    24.500,     0.000,     0.000,     0.000,     0.000,   1
   143,'1 ',1,   2,   2,    89.500,    35.500,     0.000,     0.000,     0.000,     0.000,   1
   145,'1 ',1,   2,   2,    24.000,    14.000,     0.000,     0.000,     0.000,     0.000,   1
   148,'1 ',1,   2,   2,    63.000,    25.000,     0.000,     0.000,     0.000,     0.000,   1
   152,'1 ',1,   2,   2,    17.000,     9.000,     0.000,     0.000,     0.000,     0.000,   1
   154,'1 ',1,   2,   2,    70.000,     5.000,     0.000,     0.000,     0.000,     0.000,   1
   155,'1 ',1,   2,   2,   200.000,    50.000,     0.000,     0.000,     0.000,     0.000,   1
   156,'1 ',1,   2,   2,    75.000,    50.000,     0.000,     0.000,     0.000,     0.000,   1
   157,'1 ',1,   2,   2,   123.500,    24.300,     0.000,     0.000,     0.000,     0.000,   1
   159,'1 ',1,   2,   2,    33.000,    16.500,     0.000,     0.000,     0.000,     0.000,   1
   161,'1 ',1,   2,   2,    35.000,    15.000,     0.000,     0.000,     0.000,     0.000,   1
   162,'1 ',1,   2,   2,    85.000,    24.000,     0.000,     0.000,     0.000,     0.000,   1
   163,'1 ',1,   2,   2,     0.000,     0.400,     0.000,     0.000,     0.000,     0.000,   1
   167,'1 ',1,   2,   2,   299.900,    95.700,     0.000,     0.000,     0.000,     0.000,   1
   170,'1 ',1,   2,   2,   481.800,   205.000,     0.000,     0.000,     0.000,     0.000,   1
   171,'1 ',1,   2,   2,   763.600,   291.100,     0.000,     0.000,     0.000,     0.000,   1
   172,'1 ',1,   2,   2,    26.500,     0.000,     0.000,     0.000,     0.000,     0.000,   1
   173,'1 ',1,   2,   2,   163.500,    43.000,     0.000,     0.000,     0.000,     0.000,   1
   175,'1 ',1,   2,   2,   176.000,    83.000,     0.000,     0.000,     0.000,     0.000,   1
   176,'1 ',1,   2,   2,     5.000,     4.000,     0.000,     0.000,     0.000,     0.000,   1
   177,'1 ',1,   2,   2,    28.000,    12.000,     0.000,     0.000,     0.000,     0.000,   1
   178,'1 ',1,   2,   2,   427.400,   173.600,     0.000,     0.000,     0.000,     0.000,   1
   179,'1 ',1,   2,   2,    74.000,    29.000,     0.000,     0.000,     0.000,     0.000,   1
   180,'1 ',1,   2,   2,    69.500,    49.300,     0.000,     0.000,     0.000,     0.000,   1
   181,'1 ',1,   2,   2,    73.400,     0.000,     0.000,     0.000,     0.000,     0.000,   1
   182,'1 ',1,   2,   2,   240.700,    89.000,     0.000,     0.000,     0.000,     0.000,   1
   183,'1 ',1,   2,   2,    40.000,     4.000,     0.000,     0.000,     0.000,     0.000,   1
   184,'1 ',1,   2,   2,   136.800,    16.600,     0.000,     0.000,     0.000,     0.000,   1
   186,'1 ',1,   2,   2,    59.800,    24.300,     0.000,     0.000,     0.000,     0.000,   1
   187,'1 ',1,   2,   2,    59.800,    24.300,     0.000,     0.000,     0.000,     0.000,   1
   188,'1 ',1,   2,   2,   182.600,    43.600,     0.000,     0.000,     0.000,     0.000,   1
   189,'1 ',1,   3,   3,     7.000,     2.000,     0.000,     0.000,     0.000,     0.000,   1
   191,'1 ',1,   3,   3,   489.000,    53.000,     0.000,     0.000,     0.000,     0.000,   1
   192,'1 ',1,   3,   3,   800.000,    72.000,     0.000,     0.000,     0.000,     0.000,   1
   196,'1 ',1,   3,   3,    10.000,     3.000,     0.000,     0.000,     0.000,     0.000,   1
   197,'1 ',1,   3,   3,    43.000,    14.000,     0.000,     0.000,     0.000,     0.000,   1
   198,'1 ',1,   3,   3,    64.000,    21.000,     0.000,     0.000,     0.000,     0.000,   1
   199,'1 ',1,   3,   3,    35.000,    12.000,     0.000,     0.000,     0.000,     0.000,   1
   200,'1 ',1,   3,   3,    27.000,    12.000,     0.000,     0.000,     0.000,     0.000,   1
   201,'1 ',1,   1,   1,    55.078,    18.807,     0.000,     0.000,     0.000,     0.000,   1
   202,'1 ',1,   3,   3,    38.000,    13.000,     0.000,     0.000,     0.000,     0.000,   1
   203,'1 ',1,   3,   3,    42.000,    14.000,     0.000,     0.000,     0.000,     0.000,   1
   204,'1 ',1,   3,   3,    72.000,    24.000,     0.000,     0.000,     0.000,     0.000,   1
   205,'1 ',1,   3,   3,     0.000,    -5.000,     0.000,     0.000,     0.000,     0.000,   1
   206,'1 ',1,   3,   3,    12.000,     2.000,     0.000,     0.000,     0.000,     0.000,   1
   207,'1 ',1,   1,   1,   -28.211,   -19.076,     0.000,     0.000,     0.000,     0.000,   1
   208,'1 ',1,   3,   3,     7.000,     2.000,     0.000,     0.000,     0.000,     0.000,   1
   209,'1 ',1,   3,   3,    38.000,    13.000,     0.000,     0.000,     0.000,     0.000,   1
   211,'1 ',1,   3,   3,    96.000,     7.000,     0.000,     0.000,     0.000,     0.000,   1
   214,'1 ',1,   3,   3,    22.000,    16.000,     0.000,     0.000,     0.000,     0.000,   1
   215,'1 ',1,   3,   3,    47.000,    26.000,     0.000,     0.000,     0.000,     0.000,   1
   216,'1 ',1,   3,   3,   176.000,   105.000,     0.000,     0.000,     0.000,     0.000,   1
   217,'1 ',1,   3,   3,   100.000,    75.000,     0.000,     0.000,     0.000,     0.000,   1
   218,'1 ',1,   3,   3,   131.000,    96.000,     0.000,     0.000,     0.000,     0.000,   1
   220,'1 ',1,   3,   3,   285.000,   100.000,     0.000,     0.000,     0.000,     0.000,   1
   221,'1 ',1,   3,   3,   171.000,    70.000,     0.000,     0.000,     0.000,     0.000,   1
   222,'1 ',1,   3,   3,   328.000,   188.000,     0.000,     0.000,     0.000,     0.000,   1
   223,'1 ',1,   3,   3,   428.000,   232.000,     0.000,     0.000,     0.000,     0.000,   1
   224,'1 ',1,   3,   3,   173.000,    99.000,     0.000,     0.000,     0.000,     0.000,   1
   225,'1 ',1,   3,   3,   410.000,    40.000,     0.000,     0.000,     0.000,     0.000,   1
   227,'1 ',1,   3,   3,   538.000,   369.000,     0.000,     0.000,     0.000,     0.000,   1
   228,'1 ',1,   3,   3,   223.000,   148.000,     0.000,     0.000,     0.000,     0.000,   1
   229,'1 ',1,   3,   3,    96.000,    46.000,     0.000,     0.000,     0.000,     0.000,   1
   231,'1 ',1,   3,   3,   159.000,   107.000,     0.000,     0.000,     0.000,     0.000,   1
   232,'1 ',1,   3,   3,   448.000,   143.000,     0.000,     0.000,     0.000,     0.000,   1
   233,'1 ',1,   3,   3,   404.000,   212.000,     0.000,     0.000,     0.000,     0.000,   1
   234,'1 ',1,   3,   3,   572.000,   244.000,     0.000,     0.000,     0.000,     0.000,   1
   235,'1 ',1,   3,   3,   269.000,   157.000,     0.000,     0.000,     0.000,     0.000,   1
   238,'1 ',1,   3,   3,   255.000,   149.000,     0.000,     0.000,     0.000,     0.000,   1
   243,'1 ',1,   3,   3,     8.000,     3.000,     0.000,     0.000,     0.000,     0.000,   1
   245,'1 ',1,   3,   3,    61.000,    30.000,     0.000,     0.000,     0.000,     0.000,   1
   246,'1 ',1,   3,   3,    77.000,    33.000,     0.000,     0.000,     0.000,     0.000,   1
   247,'1 ',1,   3,   3,    61.000,    30.000,     0.000,     0.000,     0.000,     0.000,   1
   248,'1 ',1,   3,   3,    29.000,    14.000,     0.000,     0.000,     0.000,     0.000,   1
   249,'1 ',1,   3,   3,    29.000,    14.000,     0.000,     0.000,     0.000,     0.000,   1
   250,'1 ',1,   3,   3,   -23.000,   -17.000,     0.000,     0.000,     0.000,     0.000,   1
   281,'1 ',1,   3,   3,   -33.100,   -29.400,     0.000,     0.000,     0.000,     0.000,   1
   319,'1 ',1,   1,   1,   155.563,   -32.241,     0.000,     0.000,     0.000,     0.000,   1
   320,'1 ',1,   1,   1,     3.224,   -16.927,     0.000,     0.000,     0.000,     0.000,   1
   322,'1 ',1,   1,   1,     3.224,    -5.239,     0.000,     0.000,     0.000,     0.000,   1
   323,'1 ',1,   1,   1,   -20.016,    35.599,     0.000,     0.000,     0.000,     0.000,   1
   324,'1 ',1,   1,   1,    33.181,    -1.612,     0.000,     0.000,     0.000,     0.000,   1
   526,'1 ',1,   1,   1,   195.192,   -46.884,     0.000,     0.000,     0.000,     0.000,   1
   528,'1 ',1,   1,   1,    37.749,   -27.539,     0.000,     0.000,     0.000,     0.000,   1
   531,'1 ',1,   1,   1,    18.807,     3.358,     0.000,     0.000,     0.000,     0.000,   1
   552,'1 ',1,   1,   1,   -14.911,    -1.881,     0.000,     0.000,     0.000,     0.000,   1
   562,'1 ',1,   1,   1,    67.840,    23.375,     0.000,     0.000,     0.000,     0.000,   1
   609,'1 ',1,   1,   1,    39.764,     0.806,     0.000,     0.000,     0.000,     0.000,   1
   664,'1 ',1,   3,   3,  -113.700,    76.700,     0.000,     0.000,     0.000,     0.000,   1
  1190,'1 ',1,   1,   1,   134.754,    39.186,     0.000,     0.000,     0.000,     0.000,   1
  1200,'1 ',1,   1,   1,  -134.337,    45.903,     0.000,     0.000,     0.000,     0.000,   1
  9003,'1 ',1,   1,   9,     2.710,     0.940,     0.000,     0.000,     0.000,     0.000,   1
  9004,'1 ',1,   1,   9,     0.860,     0.280,     0.000,     0.000,     0.000,     0.000,   1
  9021,'1 ',1,   1,   9,     4.750,     1.560,     0.000,     0.000,     0.000,     0.000,   1
  9022,'1 ',1,   1,   9,     1.530,     0.530,     0.000,     0.000,     0.000,     0.000,   1
  9024,'1 ',1,   1,   9,     1.350,     0.470,     0.000,     0.000,     0.000,     0.000,   1
  9025,'1 ',1,   1,   9,     0.450,     0.160,     0.000,     0.000,     0.000,     0.000,   1
  9026,'1 ',1,   1,   9,     0.450,     0.160,     0.000,     0.000,     0.000,     0.000,   1
  9031,'1 ',1,   1,   9,     1.840,     0.640,     0.000,     0.000,     0.000,     0.000,   1
  9032,'1 ',1,   1,   9,     1.390,     0.480,     0.000,     0.000,     0.000,     0.000,   1
  9033,'1 ',1,   1,   9,     1.890,     0.650,     0.000,     0.000,     0.000,     0.000,   1
  9034,'1 ',1,   1,   9,     1.550,     0.540,     0.000,     0.000,     0.000,     0.000,   1
  9035,'1 ',1,   1,   9,     1.660,     0.580,     0.000,     0.000,     0.000,     0.000,   1
  9036,'1 ',1,   1,   9,     3.030,     1.000,     0.000,     0.000,     0.000,     0.000,   1
  9037,'1 ',1,   1,   9,     1.860,     0.640,     0.000,     0.000,     0.000,     0.000,   1
  9038,'1 ',1,   1,   9,     2.580,     0.890,     0.000,     0.000,     0.000,     0.000,   1
  9041,'1 ',1,   1,   9,     1.010,     0.350,     0.000,     0.000,     0.000,     0.000,   1
  9042,'1 ',1,   1,   9,     0.810,     0.280,     0.000,     0.000,     0.000,     0.000,   1
  9043,'1 ',1,   1,   9,     1.600,     0.520,     0.000,     0.000,     0.000,     0.000,   1
  9052,'1 ',1,   1,   9,    30.000,    23.000,     0.000,     0.000,     0.000,     0.000,   1
  9071,'1 ',1,   1,   9,     1.020,     0.350,     0.000,     0.000,     0.000,     0.000,   1
  9072,'1 ',1,   1,   9,     1.020,     0.350,     0.000,     0.000,     0.000,     0.000,   1
  9121,'1 ',1,   1,   9,     3.800,     1.250,     0.000,     0.000,     0.000,     0.000,   1
  9533,'1 ',1,   1,   9,     1.190,     0.410,     0.000,     0.000,     0.000,     0.000,   1
 0 /End of Load data, Begin Generator data
 10000,'1 ',    -5.000,   109.012,   119.913,   -10.000,1.01530,     0,   130.951,   0.00140,   0.12000,   0.00000,   0.00000,1.00000,1,  100.0,  9999.000, -9999.000,   1,1.0000
 10001,'1 ',    -5.000,    58.383,    64.222,   -20.000,1.02050,     0,    70.316,   0.00140,   0.12000,   0.00000,   0.00000,1.00000,1,  100.0,  9999.000, -9999.000,   1,1.0000
 10002,'1 ',   -10.000,   193.180,   212.498,   -20.000,1.00100,     0,   232.126,   0.00140,   0.12000,   0.00000,   0.00000,1.00000,1,  100.0,  9999.000, -9999.000,   1,1.0000
 10003,'1 ',     0.000,   118.737,   130.611,   -25.000,0.95830,     0,   142.484,   0.00140,   0.12000,   0.00000,   0.00000,1.00000,1,  100.0,  9999.000, -9999.000,   1,1.0000
 10004,'1 ',     0.000,   206.984,   227.682,    12.000,0.96320,     0,   248.380,   0.00140,   0.12000,   0.00000,   0.00000,1.00000,1,  100.0,  9999.000, -9999.000,   1,1.0000
 10005,'1 ',   410.920,   168.494,   240.000,  -240.000,1.02500,     0,   835.000,   0.00190,   0.33900,   0.00000,   0.00000,1.00000,1,  100.0,  9999.000, -9999.000,   1,1.0000
 10006,'1 ',   169.847,    77.296,    96.000,   -11.000,1.05200,     0,   270.000,   0.00160,   0.18500,   0.00000,   0.00000,1.00000,1,  100.0,  9999.000, -9999.000,   1,1.0000
 10007,'1 ',   317.778,    63.300,   153.000,  -153.000,1.05200,     0,   410.000,   0.00190,   0.22840,   0.00000,   0.00000,1.00000,1,  100.0,  9999.000, -9999.000,   1,1.0000
 10008,'1 ',    74.513,    12.669,    56.000,   -30.000,1.00000,     0,   125.000,   0.00400,   0.13400,   0.00000,   0.00000,1.00000,1,  100.0,  9999.000, -9999.000,   1,1.0000
 10009,'1 ',   128.207,    93.651,   103.017,   -24.000,0.99000,     0,   270.000,   0.00160,   0.18500,   0.00000,   0.00000,1.00000,1,  100.0,  9999.000, -9999.000,   1,1.0000
 10010,'1 ',  2114.866,  1308.921,  2200.000,  -500.000,1.04350,     0,  2911.000,   0.00100,   0.19300,   0.00000,   0.00000,1.00000,1,  100.0,  9999.000, -9999.000,   1,1.0000
 10011,'1 ',   262.989,   200.028,   220.031,   -60.000,1.02330,     0,   410.000,   0.00190,   0.22840,   0.00000,   0.00000,1.00000,1,  100.0,  9999.000, -9999.000,   1,1.0000
 10012,'1 ',     0.000,   388.779,   427.657,   -25.000,1.01030,     0,   466.535,   0.00140,   0.12000,   0.00000,   0.00000,1.00000,1,  100.0,  9999.000, -9999.000,   1,1.0000
 10013,'1 ',  -925.030,   369.027,   405.930,  -125.000,1.05500,     0,  1195.107,   0.00100,   0.19300,   0.00000,   0.00000,1.00000,1,  100.0,  9999.000, -9999.000,   1,1.0000
 10014,'1 ',   307.916,    65.276,    75.000,   -50.000,1.05100,     0,   410.000,   0.00190,   0.22840,   0.00000,   0.00000,1.00000,1,  100.0,  9999.000, -9999.000,   1,1.0000
 10015,'1 ',   762.667,   168.257,   300.000,  -100.000,1.04350,     0,   911.000,   0.00100,   0.19300,   0.00000,   0.00000,1.00000,1,  100.0,  9999.000, -9999.000,   1,1.0000
 10016,'1 ',    92.046,    38.216,    42.037,   -15.000,1.05280,     0,   125.000,   0.00400,   0.13400,   0.00000,   0.00000,1.00000,1,  100.0,  9999.000, -9999.000,   1,1.0000
 10017,'1 ',   237.785,   -50.286,   100.000,   -55.314,1.05280,     0,   410.000,   0.00190,   0.22840,   0.00000,   0.00000,1.00000,1,  100.0,  9999.000, -9999.000,   1,1.0000
 10018,'1 ',   112.866,    48.771,    50.000,   -25.000,1.07350,     0,   270.000,   0.00160,   0.18500,   0.00000,   0.00000,1.00000,1,  100.0,  9999.000, -9999.000,   1,1.0000
 10019,'1 ',   407.632,   -44.572,   175.000,   -50.000,1.05350,     0,   835.000,   0.00190,   0.33900,   0.00000,   0.00000,1.00000,1,  100.0,  9999.000, -9999.000,   1,1.0000
 10020,'1 ',   236.690,   -19.362,    90.000,   -50.000,1.04350,     0,   410.000,   0.00190,   0.22840,   0.00000,   0.00000,1.00000,1,  100.0,  9999.000, -9999.000,   1,1.0000
 10021,'1 ',     0.000,    35.389,    38.928,   -10.000,0.96300,     0,    42.467,   0.00140,   0.12000,   0.00000,   0.00000,1.00000,1,  100.0,  9999.000, -9999.000,   1,1.0000
 10022,'1 ',   224.636,    94.326,   103.758,   -40.000,0.92900,     0,   410.000,   0.00190,   0.22840,   0.00000,   0.00000,1.00000,1,  100.0,  9999.000, -9999.000,   1,1.0000
 10023,'1 ',     0.000,   151.339,   166.473,   -50.000,0.98290,     0,   181.607,   0.00140,   0.12000,   0.00000,   0.00000,1.00000,1,  100.0,  9999.000, -9999.000,   1,1.0000
 10024,'1 ',   249.839,    37.306,    90.000,   -45.000,1.05220,     0,   410.000,   0.00190,   0.22840,   0.00000,   0.00000,1.00000,1,  100.0,  9999.000, -9999.000,   1,1.0000
 10025,'1 ',    92.046,    37.179,    40.897,   -15.000,1.00770,     0,   270.000,   0.00160,   0.18500,   0.00000,   0.00000,1.00000,1,  100.0,  9999.000, -9999.000,   1,1.0000
 10026,'1 ',   219.157,    37.449,    80.000,   -50.000,1.05220,     0,   410.000,   0.00190,   0.22840,   0.00000,   0.00000,1.00000,1,  100.0,  9999.000, -9999.000,   1,1.0000
 10027,'1 ',  1314.943,   285.632,   400.000,  -100.000,1.06500,     0,  1911.000,   0.00100,   0.19300,   0.00000,   0.00000,1.00000,1,  100.0,  9999.000, -9999.000,   1,1.0000
 10028,'1 ',  1314.943,   353.216,   400.000,  -100.000,1.06500,     0,  1911.000,   0.00100,   0.19300,   0.00000,   0.00000,1.00000,1,  100.0,  9999.000, -9999.000,   1,1.0000
 10029,'1 ',   520.498,     5.052,   300.000,  -300.000,1.05510,     0,   835.000,   0.00190,   0.33900,   0.00000,   0.00000,1.00000,1,  100.0,  9999.000, -9999.000,   1,1.0000
 10030,'1 ',  2161.985,   915.402,  1000.000, -1000.000,1.04350,     0,  2911.000,   0.00100,   0.19300,   0.00000,   0.00000,1.00000,1,  100.0,  9999.000, -9999.000,   1,1.0000
 10031,'1 ',   464.613,   136.352,   260.000,  -260.000,1.01500,     0,   835.000,   0.00190,   0.33900,   0.00000,   0.00000,1.00000,1,  100.0,  9999.000, -9999.000,   1,1.0000
 10032,'1 ',   298.054,    47.833,   150.000,  -150.000,1.01000,     0,   512.000,   0.00400,   0.20000,   0.00000,   0.00000,1.00000,1,  100.0,  9999.000, -9999.000,   1,1.0000
 10033,'1 ',   109.579,    61.052,    67.156,   -60.000,1.00800,     0,   270.000,   0.00160,   0.18500,   0.00000,   0.00000,1.00000,1,  100.0,  9999.000, -9999.000,   1,1.0000
 10034,'1 ',   493.103,   230.114,   320.000,  -320.000,1.00000,     0,   835.000,   0.00190,   0.33900,   0.00000,   0.00000,1.00000,1,  100.0,  9999.000, -9999.000,   1,1.0000
 10035,'1 ',   273.946,   146.063,   300.000,  -300.000,1.05000,     0,   410.000,   0.00190,   0.22840,   0.00000,   0.00000,1.00000,1,  100.0,  9999.000, -9999.000,   1,1.0000
 10036,'1 ',   332.023,   253.835,   300.000,  -300.000,1.00000,     0,   512.000,   0.00400,   0.20000,   0.00000,   0.00000,1.00000,1,  100.0,  9999.000, -9999.000,   1,1.0000
 10037,'1 ',   378.046,    49.061,   250.000,  -250.000,1.04000,     0,   835.000,   0.00190,   0.33900,   0.00000,   0.00000,1.00000,1,  100.0,  9999.000, -9999.000,   1,1.0000
 10038,'1 ',   328.736,   133.235,   500.000,  -500.000,1.00000,     0,   512.000,   0.00400,   0.20000,   0.00000,   0.00000,1.00000,1,  100.0,  9999.000, -9999.000,   1,1.0000
 10039,'1 ',   657.471,   311.308,   342.438,  -300.000,1.01650,     0,   911.000,   0.00100,   0.19300,   0.00000,   0.00000,1.00000,1,  100.0,  9999.000, -9999.000,   1,1.0000
 10040,'1 ',   273.946,   159.130,   200.000,  -200.000,1.01000,     0,   410.000,   0.00190,   0.22840,   0.00000,   0.00000,1.00000,1,  100.0,  9999.000, -9999.000,   1,1.0000
 10041,'1 ',   602.682,    71.726,   400.000,  -400.000,1.00000,     0,   911.000,   0.00100,   0.19300,   0.00000,   0.00000,1.00000,1,  100.0,  9999.000, -9999.000,   1,1.0000
 10042,'1 ',   629.836,   -18.333,   600.000,  -600.000,1.05000,     0,   911.000,   0.00100,   0.19300,   0.00000,   0.00000,1.00000,1,  100.0,  9999.000, -9999.000,   1,1.0000
 10043,'1 ',   186.284,    63.340,   100.000,    40.000,0.99300,     0,   410.000,   0.00190,   0.22840,   0.00000,   0.00000,1.00000,1,  100.0,  9999.000, -9999.000,   1,1.0000
 10044,'1 ',    92.046,    51.973,    80.000,    40.000,1.01000,     0,   270.000,   0.00160,   0.18500,   0.00000,   0.00000,1.00000,1,  100.0,  9999.000, -9999.000,   1,1.0000
 10045,'1 ',   511.732,   198.963,   210.000,  -210.000,1.05070,     0,   835.000,   0.00190,   0.33900,   0.00000,   0.00000,1.00000,1,  100.0,  9999.000, -9999.000,   1,1.0000
 10046,'1 ',   682.674,   117.808,   280.000,  -280.000,1.05070,     0,   911.000,   0.00100,   0.19300,   0.00000,   0.00000,1.00000,1,  100.0,  9999.000, -9999.000,   1,1.0000
 10047,'1 ',  1325.901,   519.023,   570.924,  -420.000,1.03230,     0,  1511.000,   0.00100,   0.19300,   0.00000,   0.00000,1.00000,1,  100.0,  9999.000, -9999.000,   1,1.0000
 10048,'1 ',   256.414,    78.285,   100.000,  -100.000,1.01450,     0,   410.000,   0.00190,   0.22840,   0.00000,   0.00000,1.00000,1,  100.0,  9999.000, -9999.000,   1,1.0000
 10049,'1 ',   407.632,   233.404,   256.744,  -224.000,1.05070,     0,   835.000,   0.00190,   0.33900,   0.00000,   0.00000,1.00000,1,  100.0,  9999.000, -9999.000,   1,1.0000
 10050,'1 ',   361.609,   550.985,   606.082,     0.000,1.05070,     0,   835.000,   0.00190,   0.33900,   0.00000,   0.00000,1.00000,1,  100.0,  9999.000, -9999.000,   1,1.0000
 10051,'1 ',   202.720,    25.063,   120.000,     0.000,1.05070,     0,   410.000,   0.00190,   0.22840,   0.00000,   0.00000,1.00000,1,  100.0,  9999.000, -9999.000,   1,1.0000
 10052,'1 ',   449.272,   130.387,   224.000,  -224.000,1.02900,     0,   835.000,   0.00190,   0.33900,   0.00000,   0.00000,1.00000,1,  100.0,  9999.000, -9999.000,   1,1.0000
 10053,'1 ',   547.893,   222.898,   245.186,  -200.000,1.05000,     0,   835.000,   0.00190,   0.33900,   0.00000,   0.00000,1.00000,1,  100.0,  9999.000, -9999.000,   1,1.0000
 10054,'1 ',    40.544,    58.099,    63.909,     0.000,1.01450,     0,   125.000,   0.00400,   0.13400,   0.00000,   0.00000,1.00000,1,  100.0,  9999.000, -9999.000,   1,1.0000
 10055,'1 ',   761.748,   123.752,   136.122,     0.000,1.05070,     0,   835.000,   0.00190,   0.33900,   0.00000,   0.00000,1.00000,1,  100.0,  9999.000, -9999.000,   1,1.0000
 10056,'1 ',    49.310,    40.541,    44.595,     0.000,0.99670,     0,   125.000,   0.00400,   0.13400,   0.00000,   0.00000,1.00000,1,  100.0,  9999.000, -9999.000,   1,1.0000
 10057,'1 ',   180.805,   124.010,   136.411,   -90.000,1.02120,     0,   410.000,   0.00190,   0.22840,   0.00000,   0.00000,1.00000,1,  100.0,  9999.000, -9999.000,   1,1.0000
 10058,'1 ',   438.314,   213.344,   234.678,  -150.000,1.01450,     0,   835.000,   0.00190,   0.33900,   0.00000,   0.00000,1.00000,1,  100.0,  9999.000, -9999.000,   1,1.0000
 10059,'1 ',   438.314,   207.734,   228.506,     0.000,1.00170,     0,   835.000,   0.00190,   0.33900,   0.00000,   0.00000,1.00000,1,  100.0,  9999.000, -9999.000,   1,1.0000
 10060,'1 ',   127.111,   130.409,   143.451,     0.000,0.98930,     0,   270.000,   0.00160,   0.18500,   0.00000,   0.00000,1.00000,1,  100.0,  9999.000, -9999.000,   1,1.0000
 10061,'1 ',  1415.755,   373.558,   600.000,  -100.000,1.05070,     0,  1511.000,   0.00100,   0.19300,   0.00000,   0.00000,1.00000,1,  100.0,  9999.000, -9999.000,   1,1.0000
 10062,'1 ',   767.050,   298.017,   325.000,  -125.000,1.05070,     0,   911.000,   0.00100,   0.19300,   0.00000,   0.00000,1.00000,1,  100.0,  9999.000, -9999.000,   1,1.0000
 10063,'1 ',   605.969,   176.175,   300.000,  -200.000,1.01450,     0,   911.000,   0.00100,   0.19300,   0.00000,   0.00000,1.00000,1,  100.0,  9999.000, -9999.000,   1,1.0000
 10064,'1 ',    -4.200,     4.956,     5.451,    -2.000,0.99450,     0,    25.000,   0.00140,   0.12000,   0.00000,   0.00000,1.00000,1,  100.0,  9999.000, -9999.000,   1,1.0000
 10065,'1 ',   -35.810,    21.302,    23.433,   -17.350,1.00000,     0,   125.000,   0.00400,   0.13400,   0.00000,   0.00000,1.00000,1,  100.0,  9999.000, -9999.000,   1,1.0000
 10066,'1 ',   -26.480,    17.120,    18.832,   -12.800,1.00000,     0,   125.000,   0.00400,   0.13400,   0.00000,   0.00000,1.00000,1,  100.0,  9999.000, -9999.000,   1,1.0000
 10067,'1 ',    54.789,    34.688,    38.000,   -38.000,1.00000,     0,   125.000,   0.00400,   0.13400,   0.00000,   0.00000,1.00000,1,  100.0,  9999.000, -9999.000,   1,1.0000
 10068,'1 ',     8.766,     6.458,     7.104,    -6.000,1.00000,     0,    25.000,   0.00140,   0.12000,   0.00000,   0.00000,1.00000,1,  100.0,  9999.000, -9999.000,   1,1.0000
 0 /End of Generator data, Begin Branch data
     1,      5,'1 ',   0.00100,   0.00600,   0.00000,    0.00,    0.00,    0.00,  0.00000,  0.00000,  0.00000,  0.00000,1,   0.00,   1,1.0000
     2,      6,'1 ',   0.00100,   0.00900,   0.00000,    0.00,    0.00,    0.00,  0.00000,  0.00000,  0.00000,  0.00000,1,   0.00,   1,1.0000
     2,      8,'1 ',   0.00600,   0.02700,   0.05400,    0.00,    0.00,    0.00,  0.00000,  0.00000,  0.00000,  0.00000,1,   0.00,   1,1.0000
     3,      7,'1 ',   0.00000,   0.00300,   0.00000,    0.00,    0.00,    0.00,  0.00000,  0.00000,  0.00000,  0.00000,1,   0.00,   1,1.0000
     3,     19,'1 ',   0.00800,   0.06900,   0.13900,    0.00,    0.00,    0.00,  0.00000,  0.00000,  0.00000,  0.00000,1,   0.00,   1,1.0000
     3,    150,'1 ',   0.00100,   0.00700,   0.00000,    0.00,    0.00,    0.00,  0.00000,  0.00000,  0.00000,  0.00000,1,   0.00,   1,1.0000
     4,     16,'1 ',   0.00200,   0.01900,   1.12700,    0.00,    0.00,    0.00,  0.00000,  0.00000,  0.00000,  0.00000,1,   0.00,   1,1.0000
     5,      9,'1 ',   0.00600,   0.02900,   0.01800,    0.00,    0.00,    0.00,  0.00000,  0.00000,  0.00000,  0.00000,1,   0.00,   1,1.0000
     7,     12,'1 ',   0.00100,   0.00900,   0.07000,    0.00,    0.00,    0.00,  0.00000,  0.00000,  0.00000,  0.00000,1,   0.00,   1,1.0000
     7,    131,'1 ',   0.00100,   0.00700,   0.01400,    0.00,    0.00,    0.00,  0.00000,  0.00000,  0.00000,  0.00000,1,   0.00,   1,1.0000
     8,     11,'1 ',   0.01300,   0.05950,   0.03300,    0.00,    0.00,    0.00,  0.00000,  0.00000,  0.00000,  0.00000,1,   0.00,   1,1.0000
     8,     14,'1 ',   0.01300,   0.04200,   0.08100,    0.00,    0.00,    0.00,  0.00000,  0.00000,  0.00000,  0.00000,1,   0.00,   1,1.0000
     9,     11,'1 ',   0.00600,   0.02700,   0.01300,    0.00,    0.00,    0.00,  0.00000,  0.00000,  0.00000,  0.00000,1,   0.00,   1,1.0000
    11,     13,'1 ',   0.00800,   0.03400,   0.01800,    0.00,    0.00,    0.00,  0.00000,  0.00000,  0.00000,  0.00000,1,   0.00,   1,1.0000
    12,     21,'1 ',   0.00200,   0.01500,   0.11800,    0.00,    0.00,    0.00,  0.00000,  0.00000,  0.00000,  0.00000,1,   0.00,   1,1.0000
    13,     20,'1 ',   0.00600,   0.03400,   0.01600,    0.00,    0.00,    0.00,  0.00000,  0.00000,  0.00000,  0.00000,1,   0.00,   1,1.0000
    14,     15,'1 ',   0.01400,   0.04200,   0.09700,    0.00,    0.00,    0.00,  0.00000,  0.00000,  0.00000,  0.00000,1,   0.00,   1,1.0000
    15,     37,'1 ',   0.06500,   0.24800,   0.12100,    0.00,    0.00,    0.00,  0.00000,  0.00000,  0.00000,  0.00000,1,   0.00,   1,1.0000
    15,     89,'1 ',   0.09900,   0.24800,   0.03500,    0.00,    0.00,    0.00,  0.00000,  0.00000,  0.00000,  0.00000,1,   0.00,   1,1.0000
    15,     90,'1 ',   0.09600,   0.36300,   0.04800,    0.00,    0.00,    0.00,  0.00000,  0.00000,  0.00000,  0.00000,1,   0.00,   1,1.0000
    16,     42,'1 ',   0.00200,   0.02200,   1.28000,    0.00,    0.00,    0.00,  0.00000,  0.00000,  0.00000,  0.00000,1,   0.00,   1,1.0000
    19,     21,'1 ',   0.00200,   0.01800,   0.03600,    0.00,    0.00,    0.00,  0.00000,  0.00000,  0.00000,  0.00000,1,   0.00,   1,1.0000
    19,     87,'1 ',   0.01300,   0.08000,   0.15100,    0.00,    0.00,    0.00,  0.00000,  0.00000,  0.00000,  0.00000,1,   0.00,   1,1.0000
    20,     22,'1 ',   0.01600,   0.03300,   0.01500,    0.00,    0.00,    0.00,  0.00000,  0.00000,  0.00000,  0.00000,1,   0.00,   1,1.0000
    20,     27,'1 ',   0.06900,   0.18600,   0.09800,    0.00,    0.00,    0.00,  0.00000,  0.00000,  0.00000,  0.00000,1,   0.00,   1,1.0000
    21,     24,'1 ',   0.00400,   0.03400,   0.28000,    0.00,    0.00,    0.00,  0.00000,  0.00000,  0.00000,  0.00000,1,   0.00,   1,1.0000
    22,     23,'1 ',   0.05200,   0.11100,   0.05000,    0.00,    0.00,    0.00,  0.00000,  0.00000,  0.00000,  0.00000,1,   0.00,   1,1.0000
    23,     25,'1 ',   0.01900,   0.03900,   0.01800,    0.00,    0.00,    0.00,  0.00000,  0.00000,  0.00000,  0.00000,1,   0.00,   1,1.0000
    24,    319,'1 ',   0.00700,   0.06800,   0.13400,    0.00,    0.00,    0.00,  0.00000,  0.00000,  0.00000,  0.00000,1,   0.00,   1,1.0000
    25,     26,'1 ',   0.03600,   0.07100,   0.03400,    0.00,    0.00,    0.00,  0.00000,  0.00000,  0.00000,  0.00000,1,   0.00,   1,1.0000
    26,     27,'1 ',   0.04500,   0.12000,   0.06500,    0.00,    0.00,    0.00,  0.00000,  0.00000,  0.00000,  0.00000,1,   0.00,   1,1.0000
    26,    320,'1 ',   0.04300,   0.13000,   0.01400,    0.00,    0.00,    0.00,  0.00000,  0.00000,  0.00000,  0.00000,1,   0.00,   1,1.0000
    33,     34,'1 ',   0.00000,   0.06300,   0.00000,    0.00,    0.00,    0.00,  0.00000,  0.00000,  0.00000,  0.00000,1,   0.00,   1,1.0000
    33,     38,'1 ',   0.00250,   0.01200,   0.01300,    0.00,    0.00,    0.00,  0.00000,  0.00000,  0.00000,  0.00000,1,   0.00,   1,1.0000
    33,     40,'1 ',   0.00600,   0.02900,   0.02000,    0.00,    0.00,    0.00,  0.00000,  0.00000,  0.00000,  0.00000,1,   0.00,   1,1.0000
    33,     41,'1 ',   0.00700,   0.04300,   0.02600,    0.00,    0.00,    0.00,  0.00000,  0.00000,  0.00000,  0.00000,1,   0.00,   1,1.0000
    34,     42,'1 ',   0.00100,   0.00800,   0.04200,    0.00,    0.00,    0.00,  0.00000,  0.00000,  0.00000,  0.00000,1,   0.00,   1,1.0000
    35,     72,'1 ',   0.01200,   0.06000,   0.00800,    0.00,    0.00,    0.00,  0.00000,  0.00000,  0.00000,  0.00000,1,   0.00,   1,1.0000
    35,     76,'1 ',   0.00600,   0.01400,   0.00200,    0.00,    0.00,    0.00,  0.00000,  0.00000,  0.00000,  0.00000,1,   0.00,   1,1.0000
    35,     77,'1 ',   0.01000,   0.02900,   0.00300,    0.00,    0.00,    0.00,  0.00000,  0.00000,  0.00000,  0.00000,1,   0.00,   1,1.0000
    36,     88,'1 ',   0.00400,   0.02700,   0.04300,    0.00,    0.00,    0.00,  0.00000,  0.00000,  0.00000,  0.00000,1,   0.00,   1,1.0000
    37,     38,'1 ',   0.00800,   0.04700,   0.00800,    0.00,    0.00,    0.00,  0.00000,  0.00000,  0.00000,  0.00000,1,   0.00,   1,1.0000
    37,     40,'1 ',   0.02200,   0.06400,   0.00700,    0.00,    0.00,    0.00,  0.00000,  0.00000,  0.00000,  0.00000,1,   0.00,   1,1.0000
    37,     41,'1 ',   0.01000,   0.03600,   0.02000,    0.00,    0.00,    0.00,  0.00000,  0.00000,  0.00000,  0.00000,1,   0.00,   1,1.0000
    37,     49,'1 ',   0.01700,   0.08100,   0.04800,    0.00,    0.00,    0.00,  0.00000,  0.00000,  0.00000,  0.00000,1,   0.00,   1,1.0000
    37,     89,'1 ',   0.10200,   0.25400,   0.03300,    0.00,    0.00,    0.00,  0.00000,  0.00000,  0.00000,  0.00000,1,   0.00,   1,1.0000
    37,     90,'1 ',   0.04700,   0.12700,   0.01600,    0.00,    0.00,    0.00,  0.00000,  0.00000,  0.00000,  0.00000,1,   0.00,   1,1.0000
    38,     41,'1 ',   0.00800,   0.03700,   0.02000,    0.00,    0.00,    0.00,  0.00000,  0.00000,  0.00000,  0.00000,1,   0.00,   1,1.0000
    38,     43,'1 ',   0.03200,   0.08700,   0.04000,    0.00,    0.00,    0.00,  0.00000,  0.00000,  0.00000,  0.00000,1,   0.00,   1,1.0000
    39,     42,'1 ',   0.00060,   0.00640,   0.40400,    0.00,    0.00,    0.00,  0.00000,  0.00000,  0.00000,  0.00000,1,   0.00,   1,1.0000
    40,     48,'1 ',   0.02600,   0.15400,   0.02200,    0.00,    0.00,    0.00,  0.00000,  0.00000,  0.00000,  0.00000,1,   0.00,   1,1.0000
    41,     42,'1 ',   0.00000,   0.02900,   0.00000,    0.00,    0.00,    0.00,  0.00000,  0.00000,  0.00000,  0.00000,1,   0.00,   1,1.0000
    41,     49,'1 ',   0.06500,   0.19100,   0.02000,    0.00,    0.00,    0.00,  0.00000,  0.00000,  0.00000,  0.00000,1,   0.00,   1,1.0000
    41,     51,'1 ',   0.03100,   0.08900,   0.03600,    0.00,    0.00,    0.00,  0.00000,  0.00000,  0.00000,  0.00000,1,   0.00,   1,1.0000
    42,     46,'1 ',   0.00200,   0.01400,   0.80600,    0.00,    0.00,    0.00,  0.00000,  0.00000,  0.00000,  0.00000,1,   0.00,   1,1.0000
    43,     44,'1 ',   0.02600,   0.07200,   0.03500,    0.00,    0.00,    0.00,  0.00000,  0.00000,  0.00000,  0.00000,1,   0.00,   1,1.0000
    43,     48,'1 ',   0.09500,   0.26200,   0.03200,    0.00,    0.00,    0.00,  0.00000,  0.00000,  0.00000,  0.00000,1,   0.00,   1,1.0000
    43,     53,'1 ',   0.01300,   0.03900,   0.01600,    0.00,    0.00,    0.00,  0.00000,  0.00000,  0.00000,  0.00000,1,   0.00,   1,1.0000
    44,     47,'1 ',   0.02700,   0.08400,   0.03900,    0.00,    0.00,    0.00,  0.00000,  0.00000,  0.00000,  0.00000,1,   0.00,   1,1.0000
    44,     54,'1 ',   0.02800,   0.08400,   0.03700,    0.00,    0.00,    0.00,  0.00000,  0.00000,  0.00000,  0.00000,1,   0.00,   1,1.0000
    45,     60,'1 ',   0.00700,   0.04100,   0.31200,    0.00,    0.00,    0.00,  0.00000,  0.00000,  0.00000,  0.00000,1,   0.00,   1,1.0000
    45,     74,'1 ',   0.00900,   0.05400,   0.41100,    0.00,    0.00,    0.00,  0.00000,  0.00000,  0.00000,  0.00000,1,   0.00,   1,1.0000
    46,     81,'1 ',   0.00500,   0.04200,   0.69000,    0.00,    0.00,    0.00,  0.00000,  0.00000,  0.00000,  0.00000,1,   0.00,   1,1.0000
    47,     73,'1 ',   0.05200,   0.14500,   0.07300,    0.00,    0.00,    0.00,  0.00000,  0.00000,  0.00000,  0.00000,1,   0.00,   1,1.0000
    47,    113,'1 ',   0.04300,   0.11800,   0.01300,    0.00,    0.00,    0.00,  0.00000,  0.00000,  0.00000,  0.00000,1,   0.00,   1,1.0000
    48,    107,'1 ',   0.02500,   0.06200,   0.00700,    0.00,    0.00,    0.00,  0.00000,  0.00000,  0.00000,  0.00000,1,   0.00,   1,1.0000
    49,     51,'1 ',   0.03100,   0.09400,   0.04300,    0.00,    0.00,    0.00,  0.00000,  0.00000,  0.00000,  0.00000,1,   0.00,   1,1.0000
    51,     52,'1 ',   0.03700,   0.10900,   0.04900,    0.00,    0.00,    0.00,  0.00000,  0.00000,  0.00000,  0.00000,1,   0.00,   1,1.0000
    52,     55,'1 ',   0.02700,   0.08000,   0.03600,    0.00,    0.00,    0.00,  0.00000,  0.00000,  0.00000,  0.00000,1,   0.00,   1,1.0000
    53,     54,'1 ',   0.02500,   0.07300,   0.03500,    0.00,    0.00,    0.00,  0.00000,  0.00000,  0.00000,  0.00000,1,   0.00,   1,1.0000
    54,     55,'1 ',   0.03500,   0.10300,   0.04700,    0.00,    0.00,    0.00,  0.00000,  0.00000,  0.00000,  0.00000,1,   0.00,   1,1.0000
    55,     57,'1 ',   0.06500,   0.16900,   0.08200,    0.00,    0.00,    0.00,  0.00000,  0.00000,  0.00000,  0.00000,1,   0.00,   1,1.0000
    57,     58,'1 ',   0.04600,   0.08000,   0.03600,    0.00,    0.00,    0.00,  0.00000,  0.00000,  0.00000,  0.00000,1,   0.00,   1,1.0000
    57,     63,'1 ',   0.15900,   0.53700,   0.07100,    0.00,    0.00,    0.00,  0.00000,  0.00000,  0.00000,  0.00000,1,   0.00,   1,1.0000
    58,     59,'1 ',   0.00900,   0.02600,   0.00500,    0.00,    0.00,    0.00,  0.00000,  0.00000,  0.00000,  0.00000,1,   0.00,   1,1.0000
    59,     61,'1 ',   0.00200,   0.01300,   0.01500,    0.00,    0.00,    0.00,  0.00000,  0.00000,  0.00000,  0.00000,1,   0.00,   1,1.0000
    60,     62,'1 ',   0.00900,   0.06500,   0.48500,    0.00,    0.00,    0.00,  0.00000,  0.00000,  0.00000,  0.00000,1,   0.00,   1,1.0000
    62,     64,'1 ',   0.01600,   0.10500,   0.20300,    0.00,    0.00,    0.00,  0.00000,  0.00000,  0.00000,  0.00000,1,   0.00,   1,1.0000
...